Version 4
SHEET 1 880 1000
WIRE 784 -112 240 -112
WIRE 240 48 240 -112
WIRE 240 48 64 48
WIRE 432 48 240 48
WIRE 64 112 64 48
WIRE 432 112 432 48
WIRE 64 256 64 192
WIRE 432 256 432 192
WIRE 64 304 64 256
WIRE 432 304 432 256
WIRE 16 384 -256 384
WIRE 576 384 480 384
WIRE 64 464 64 400
WIRE 224 464 64 464
WIRE 432 464 432 400
WIRE 432 464 224 464
WIRE 224 480 224 464
WIRE 784 480 784 -112
WIRE -256 512 -256 384
WIRE 224 704 224 560
WIRE -256 720 -256 592
WIRE 224 880 224 784
WIRE 576 880 576 384
WIRE 576 880 224 880
WIRE 784 896 784 560
WIRE 224 960 224 880
FLAG -256 720 0
FLAG 224 960 0
FLAG 784 896 0
FLAG 64 256 VO1
FLAG 432 256 VO2
SYMBOL res 48 96 R0
SYMATTR InstName R1
SYMATTR Value 5K
SYMBOL res 416 96 R0
SYMATTR InstName R2
SYMATTR Value 5k
SYMBOL nmos 16 304 R0
SYMATTR InstName M1
SYMBOL nmos 480 304 M0
SYMATTR InstName M2
SYMBOL voltage -256 496 R0
WINDOW 123 0 0 Left 0
WINDOW 39 0 0 Left 0
SYMATTR InstName V1
SYMATTR Value SINE(0 1 1k)
SYMBOL voltage 784 464 R0
WINDOW 123 0 0 Left 0
WINDOW 39 0 0 Left 0
SYMATTR InstName V2
SYMATTR Value 3.3
SYMBOL voltage 224 688 R0
WINDOW 123 0 0 Left 0
WINDOW 39 0 0 Left 0
SYMATTR InstName V3
SYMATTR Value 3.3
SYMBOL current 224 480 R0
WINDOW 123 0 0 Left 0
WINDOW 39 0 0 Left 0
SYMATTR InstName I1
SYMATTR Value 500µ
TEXT -290 984 Left 2 !;op
TEXT -248 208 Left 2 !.tran 5m
